 vg 1 0  pulse(0 5 0 0 0 10m 20m)
vd 2 0 dc 5v
.model nmod nmos vto=0.5 kp=200u
.model pmod pmos vto=0.5 kp=200u
m1 3 1 0 0 nmod w=100u l=10u
m2 3 1 2 2 pmod w=100u l=10u
.tran 0.1m 100m
.control
